File SAP2000_8x5_20kat.s2k was saved on 4/13/26 at 21:27:50 by build2ai
 
TABLE:  "PROGRAM CONTROL"
   ProgramName=SAP2000   Version=26.2.0   ProgLevel=Ultimate   CurrUnits="KN, m, C"   SteelCode="AISC 360-16"   ConcCode="ACI 318-19"
 
TABLE:  "ACTIVE DEGREES OF FREEDOM"
   UX=Yes   UY=Yes   UZ=Yes   RX=Yes   RY=Yes   RZ=Yes
 
TABLE:  "ANALYSIS OPTIONS"
   Solver=Advanced   SolverProc=Auto   Force32Bit=No   StiffCase=None   GeomMod=None   HingeOpt="In Elements"
 
TABLE:  "COORDINATE SYSTEMS"
   Name=GLOBAL   Type=Cartesian   X=0   Y=0   Z=0   AboutZ=0   AboutY=0   AboutX=0
 
TABLE:  "GRID LINES"
   CoordSys=GLOBAL   AxisDir=X   GridID=A   XRYZCoord=0   LineType=Primary   LineColor=Gray8Dark   Visible=Yes   BubbleLoc=End
   CoordSys=GLOBAL   AxisDir=X   GridID=B   XRYZCoord=5   LineType=Primary   LineColor=Gray8Dark   Visible=Yes   BubbleLoc=End
   CoordSys=GLOBAL   AxisDir=X   GridID=C   XRYZCoord=10   LineType=Primary   LineColor=Gray8Dark   Visible=Yes   BubbleLoc=End
   CoordSys=GLOBAL   AxisDir=X   GridID=D   XRYZCoord=15   LineType=Primary   LineColor=Gray8Dark   Visible=Yes   BubbleLoc=End
   CoordSys=GLOBAL   AxisDir=X   GridID=E   XRYZCoord=20   LineType=Primary   LineColor=Gray8Dark   Visible=Yes   BubbleLoc=End
   CoordSys=GLOBAL   AxisDir=X   GridID=F   XRYZCoord=25   LineType=Primary   LineColor=Gray8Dark   Visible=Yes   BubbleLoc=End
   CoordSys=GLOBAL   AxisDir=X   GridID=G   XRYZCoord=30   LineType=Primary   LineColor=Gray8Dark   Visible=Yes   BubbleLoc=End
   CoordSys=GLOBAL   AxisDir=X   GridID=H   XRYZCoord=35   LineType=Primary   LineColor=Gray8Dark   Visible=Yes   BubbleLoc=End
   CoordSys=GLOBAL   AxisDir=Y   GridID=1   XRYZCoord=0   LineType=Primary   LineColor=Gray8Dark   Visible=Yes   BubbleLoc=Start
   CoordSys=GLOBAL   AxisDir=Y   GridID=2   XRYZCoord=5   LineType=Primary   LineColor=Gray8Dark   Visible=Yes   BubbleLoc=Start
   CoordSys=GLOBAL   AxisDir=Y   GridID=3   XRYZCoord=10   LineType=Primary   LineColor=Gray8Dark   Visible=Yes   BubbleLoc=Start
   CoordSys=GLOBAL   AxisDir=Y   GridID=4   XRYZCoord=15   LineType=Primary   LineColor=Gray8Dark   Visible=Yes   BubbleLoc=Start
   CoordSys=GLOBAL   AxisDir=Y   GridID=5   XRYZCoord=20   LineType=Primary   LineColor=Gray8Dark   Visible=Yes   BubbleLoc=Start
   CoordSys=GLOBAL   AxisDir=Z   GridID=Z1   XRYZCoord=0   LineType=Primary   LineColor=Gray8Dark   Visible=Yes   BubbleLoc=End
   CoordSys=GLOBAL   AxisDir=Z   GridID=Z2   XRYZCoord=3   LineType=Primary   LineColor=Gray8Dark   Visible=Yes   BubbleLoc=End
   CoordSys=GLOBAL   AxisDir=Z   GridID=Z3   XRYZCoord=6   LineType=Primary   LineColor=Gray8Dark   Visible=Yes   BubbleLoc=End
   CoordSys=GLOBAL   AxisDir=Z   GridID=Z4   XRYZCoord=9   LineType=Primary   LineColor=Gray8Dark   Visible=Yes   BubbleLoc=End
   CoordSys=GLOBAL   AxisDir=Z   GridID=Z5   XRYZCoord=12   LineType=Primary   LineColor=Gray8Dark   Visible=Yes   BubbleLoc=End
   CoordSys=GLOBAL   AxisDir=Z   GridID=Z6   XRYZCoord=15   LineType=Primary   LineColor=Gray8Dark   Visible=Yes   BubbleLoc=End
   CoordSys=GLOBAL   AxisDir=Z   GridID=Z7   XRYZCoord=18   LineType=Primary   LineColor=Gray8Dark   Visible=Yes   BubbleLoc=End
   CoordSys=GLOBAL   AxisDir=Z   GridID=Z8   XRYZCoord=21   LineType=Primary   LineColor=Gray8Dark   Visible=Yes   BubbleLoc=End
   CoordSys=GLOBAL   AxisDir=Z   GridID=Z9   XRYZCoord=24   LineType=Primary   LineColor=Gray8Dark   Visible=Yes   BubbleLoc=End
   CoordSys=GLOBAL   AxisDir=Z   GridID=Z10   XRYZCoord=27   LineType=Primary   LineColor=Gray8Dark   Visible=Yes   BubbleLoc=End
   CoordSys=GLOBAL   AxisDir=Z   GridID=Z11   XRYZCoord=30   LineType=Primary   LineColor=Gray8Dark   Visible=Yes   BubbleLoc=End
   CoordSys=GLOBAL   AxisDir=Z   GridID=Z12   XRYZCoord=33   LineType=Primary   LineColor=Gray8Dark   Visible=Yes   BubbleLoc=End
   CoordSys=GLOBAL   AxisDir=Z   GridID=Z13   XRYZCoord=36   LineType=Primary   LineColor=Gray8Dark   Visible=Yes   BubbleLoc=End
   CoordSys=GLOBAL   AxisDir=Z   GridID=Z14   XRYZCoord=39   LineType=Primary   LineColor=Gray8Dark   Visible=Yes   BubbleLoc=End
   CoordSys=GLOBAL   AxisDir=Z   GridID=Z15   XRYZCoord=42   LineType=Primary   LineColor=Gray8Dark   Visible=Yes   BubbleLoc=End
   CoordSys=GLOBAL   AxisDir=Z   GridID=Z16   XRYZCoord=45   LineType=Primary   LineColor=Gray8Dark   Visible=Yes   BubbleLoc=End
   CoordSys=GLOBAL   AxisDir=Z   GridID=Z17   XRYZCoord=48   LineType=Primary   LineColor=Gray8Dark   Visible=Yes   BubbleLoc=End
   CoordSys=GLOBAL   AxisDir=Z   GridID=Z18   XRYZCoord=51   LineType=Primary   LineColor=Gray8Dark   Visible=Yes   BubbleLoc=End
   CoordSys=GLOBAL   AxisDir=Z   GridID=Z19   XRYZCoord=54   LineType=Primary   LineColor=Gray8Dark   Visible=Yes   BubbleLoc=End
   CoordSys=GLOBAL   AxisDir=Z   GridID=Z20   XRYZCoord=57   LineType=Primary   LineColor=Gray8Dark   Visible=Yes   BubbleLoc=End
   CoordSys=GLOBAL   AxisDir=Z   GridID=Z21   XRYZCoord=60   LineType=Primary   LineColor=Gray8Dark   Visible=Yes   BubbleLoc=End
 
TABLE:  "MATERIAL PROPERTIES 01 - GENERAL"
   Material=C30   Type=Concrete   SymType=Isotropic   TempDepend=No   Color=Cyan   Notes="C30 Concrete"
   Material=S420   Type=Steel   Grade=S420   SymType=Isotropic   TempDepend=No   Color=Magenta   Notes="S420 Steel"
   Material=rebar   Type=Rebar   SymType=Uniaxial   TempDepend=No   Color=Red   Notes="Rebar"
 
TABLE:  "MATERIAL PROPERTIES 02 - BASIC MECHANICAL PROPERTIES"
   Material=C30   UnitWeight=25   UnitMass=2,5492904805560515   E1=27386000   U12=0,2   A1=9,9E-06
   Material=S420   UnitWeight=76,9728   UnitMass=7,8490   E1=210000000   G12=80769230   U12=0,3   A1=1,17E-05
   Material=rebar   UnitWeight=76,9728   UnitMass=7,8490   E1=200000000   A1=1,17E-05
 
TABLE:  "MATERIAL PROPERTIES 03B - CONCRETE DATA"
   Material=C30   Fc=30000   eFc=30000   LtWtConc=No   SSCurveOpt=Mander   SSHysType=Takeda   SFc=0,002   SCap=0,005   FinalSlope=-0,1
 
TABLE:  "MATERIAL PROPERTIES 03A - STEEL DATA"
   Material=S420   Fy=420000   Fu=609000   EffFy=462000   EffFu=672000   SSCurveOpt=Simple   SSHysType=Kinematic   SHard=0,015   SMax=0,11   SRup=0,17
 
TABLE:  "FRAME SECTION PROPERTIES 01 - GENERAL"
   SectionName=COL40x40   Material=C30   Shape=Rectangular   t3=0,4   t2=0,4   Area=0,16   I33=2,1333E-03   I22=2,1333E-03   ConcCol=Yes   ConcBeam=No   Color=Blue
   SectionName=BEAM25x50   Material=C30   Shape=Rectangular   t3=0,5   t2=0,25   Area=0,125   I33=2,6042E-03   I22=6,5104E-04   ConcCol=No   ConcBeam=Yes   Color=Green
 
TABLE:  "JOINT COORDINATES"
   Joint=1   CoordSys=GLOBAL   CoordType=Cartesian   XorR=0   Y=0   Z=0   SpecialJt=No
   Joint=2   CoordSys=GLOBAL   CoordType=Cartesian   XorR=5   Y=0   Z=0   SpecialJt=No
   Joint=3   CoordSys=GLOBAL   CoordType=Cartesian   XorR=10   Y=0   Z=0   SpecialJt=No
   Joint=4   CoordSys=GLOBAL   CoordType=Cartesian   XorR=15   Y=0   Z=0   SpecialJt=No
   Joint=5   CoordSys=GLOBAL   CoordType=Cartesian   XorR=20   Y=0   Z=0   SpecialJt=No
   Joint=6   CoordSys=GLOBAL   CoordType=Cartesian   XorR=25   Y=0   Z=0   SpecialJt=No
   Joint=7   CoordSys=GLOBAL   CoordType=Cartesian   XorR=30   Y=0   Z=0   SpecialJt=No
   Joint=8   CoordSys=GLOBAL   CoordType=Cartesian   XorR=35   Y=0   Z=0   SpecialJt=No
   Joint=9   CoordSys=GLOBAL   CoordType=Cartesian   XorR=0   Y=5   Z=0   SpecialJt=No
   Joint=10   CoordSys=GLOBAL   CoordType=Cartesian   XorR=5   Y=5   Z=0   SpecialJt=No
   Joint=11   CoordSys=GLOBAL   CoordType=Cartesian   XorR=10   Y=5   Z=0   SpecialJt=No
   Joint=12   CoordSys=GLOBAL   CoordType=Cartesian   XorR=15   Y=5   Z=0   SpecialJt=No
   Joint=13   CoordSys=GLOBAL   CoordType=Cartesian   XorR=20   Y=5   Z=0   SpecialJt=No
   Joint=14   CoordSys=GLOBAL   CoordType=Cartesian   XorR=25   Y=5   Z=0   SpecialJt=No
   Joint=15   CoordSys=GLOBAL   CoordType=Cartesian   XorR=30   Y=5   Z=0   SpecialJt=No
   Joint=16   CoordSys=GLOBAL   CoordType=Cartesian   XorR=35   Y=5   Z=0   SpecialJt=No
   Joint=17   CoordSys=GLOBAL   CoordType=Cartesian   XorR=0   Y=10   Z=0   SpecialJt=No
   Joint=18   CoordSys=GLOBAL   CoordType=Cartesian   XorR=5   Y=10   Z=0   SpecialJt=No
   Joint=19   CoordSys=GLOBAL   CoordType=Cartesian   XorR=10   Y=10   Z=0   SpecialJt=No
   Joint=20   CoordSys=GLOBAL   CoordType=Cartesian   XorR=15   Y=10   Z=0   SpecialJt=No
# ... 820 like lines cut
 
TABLE:  "CONNECTIVITY - FRAME"
   Frame=1   JointI=1   JointJ=41   IsCurved=No   Length=3   CentroidX=0   CentroidY=0   CentroidZ=1,5
   Frame=2   JointI=2   JointJ=42   IsCurved=No   Length=3   CentroidX=0   CentroidY=0   CentroidZ=1,5
   Frame=3   JointI=3   JointJ=43   IsCurved=No   Length=3   CentroidX=0   CentroidY=0   CentroidZ=1,5
   Frame=4   JointI=4   JointJ=44   IsCurved=No   Length=3   CentroidX=0   CentroidY=0   CentroidZ=1,5
   Frame=5   JointI=5   JointJ=45   IsCurved=No   Length=3   CentroidX=0   CentroidY=0   CentroidZ=1,5
   Frame=6   JointI=6   JointJ=46   IsCurved=No   Length=3   CentroidX=0   CentroidY=0   CentroidZ=1,5
   Frame=7   JointI=7   JointJ=47   IsCurved=No   Length=3   CentroidX=0   CentroidY=0   CentroidZ=1,5
   Frame=8   JointI=8   JointJ=48   IsCurved=No   Length=3   CentroidX=0   CentroidY=0   CentroidZ=1,5
   Frame=9   JointI=9   JointJ=49   IsCurved=No   Length=3   CentroidX=0   CentroidY=0   CentroidZ=1,5
   Frame=10   JointI=10   JointJ=50   IsCurved=No   Length=3   CentroidX=0   CentroidY=0   CentroidZ=1,5
   Frame=11   JointI=11   JointJ=51   IsCurved=No   Length=3   CentroidX=0   CentroidY=0   CentroidZ=1,5
   Frame=12   JointI=12   JointJ=52   IsCurved=No   Length=3   CentroidX=0   CentroidY=0   CentroidZ=1,5
   Frame=13   JointI=13   JointJ=53   IsCurved=No   Length=3   CentroidX=0   CentroidY=0   CentroidZ=1,5
   Frame=14   JointI=14   JointJ=54   IsCurved=No   Length=3   CentroidX=0   CentroidY=0   CentroidZ=1,5
   Frame=15   JointI=15   JointJ=55   IsCurved=No   Length=3   CentroidX=0   CentroidY=0   CentroidZ=1,5
   Frame=16   JointI=16   JointJ=56   IsCurved=No   Length=3   CentroidX=0   CentroidY=0   CentroidZ=1,5
   Frame=17   JointI=17   JointJ=57   IsCurved=No   Length=3   CentroidX=0   CentroidY=0   CentroidZ=1,5
   Frame=18   JointI=18   JointJ=58   IsCurved=No   Length=3   CentroidX=0   CentroidY=0   CentroidZ=1,5
   Frame=19   JointI=19   JointJ=59   IsCurved=No   Length=3   CentroidX=0   CentroidY=0   CentroidZ=1,5
   Frame=20   JointI=20   JointJ=60   IsCurved=No   Length=3   CentroidX=0   CentroidY=0   CentroidZ=1,5
# ... 2120 like lines cut
 
TABLE:  "LOAD PATTERN DEFINITIONS"
   LoadPat=G   DesignType=Dead   SelfWtMult=1
   LoadPat=Q   DesignType=Live   SelfWtMult=0
   LoadPat=EQX   DesignType=Quake   SelfWtMult=0
   LoadPat=EQY   DesignType=Quake   SelfWtMult=0
 
END TABLE DATA
 